LTspice 24.0.9 for Windows
Circuit: * C:\Users\nicla\Documents\GitHub\diy_hifi_amplifier\power_amplifier\50w_class_ab_blameless.asc
Start Time: Sun May 19 14:48:25 2024
Warning: Multiple definitions of model "2scr375p" Type: BJT
Warning: Multiple definitions of model "bc857b" Type: BJT
Warning: Multiple definitions of model "bc847c" Type: BJT
Warning: Multiple definitions of model "bc847b" Type: BJT
solver = Normal
Maximum thread count: 16
tnom = 27
temp = 27
method = modified trap
Direct Newton iteration for .op point succeeded.
N-Period=8
Fourier components of V(out)
DC component:-0.0743794

Harmonic	Frequency	 Fourier 	Normalized	 Phase  	Normalized
 Number 	  [Hz]   	Component	 Component	[degree]	Phase [deg]
    1   	 1.000e+3	 2.960e+1	 1.000e+0	   90.15°	    0.00°
    2   	 2.000e+3	 1.780e-4	 6.015e-6	  -99.72°	 -189.87°
    3   	 3.000e+3	 6.213e-4	 2.099e-5	 -168.06°	 -258.21°
    4   	 4.000e+3	 8.800e-5	 2.973e-6	  -91.48°	 -181.62°
    5   	 5.000e+3	 5.580e-4	 1.885e-5	 -170.19°	 -260.33°
    6   	 6.000e+3	 5.886e-5	 1.989e-6	  -92.87°	 -183.02°
    7   	 7.000e+3	 5.075e-4	 1.715e-5	 -170.63°	 -260.78°
    8   	 8.000e+3	 4.416e-5	 1.492e-6	  -93.62°	 -183.76°
    9   	 9.000e+3	 4.600e-4	 1.554e-5	 -170.27°	 -260.42°
   10   	 1.000e+4	 3.523e-5	 1.190e-6	  -94.54°	 -184.68°
Partial Harmonic Distortion: 0.003721%
Total Harmonic Distortion:   0.037935%


Total elapsed time: 0.084 seconds.

